
     RDKit          3D

 47 48  0  0  0  0  0  0  0  0999 V2000
   -1.2024    0.8890    1.0743 C   0  0  0  0  0  0  0  0  0  0  0  0
    1.1895    0.5011    1.0169 C   0  0  0  0  0  0  0  0  0  0  0  0
    2.3325    0.2569    1.9713 C   0  0  0  0  0  0  0  0  0  0  0  0
    3.6619    0.0999    1.2622 C   0  0  0  0  0  0  0  0  0  0  0  0
    4.0239    1.3096    0.4735 C   0  0  0  0  0  0  0  0  0  0  0  0
    4.3295    0.9952   -0.9919 C   0  0  0  0  0  0  0  0  0  0  0  0
    4.7680   -1.2627   -0.5576 C   0  0  0  0  0  0  0  0  0  0  0  0
    3.7561   -1.1943    0.5305 C   0  0  0  0  0  0  0  0  0  0  0  0
   -2.7060    0.0602   -0.6006 C   0  0  0  0  0  0  0  0  0  0  0  0
   -3.0235   -1.2136   -1.3538 C   0  0  0  0  0  0  0  0  0  0  0  0
   -4.3937   -1.7454   -0.9614 C   0  0  0  0  0  0  0  0  0  0  0  0
   -5.4087   -0.6838   -1.3048 C   0  0  0  0  0  0  0  0  0  0  0  0
   -5.1318    0.5539   -0.5244 C   0  0  0  0  0  0  0  0  0  0  0  0
   -3.8447    0.5180    0.2509 C   0  0  0  0  0  0  0  0  0  0  0  0
   -0.0117    0.6345    1.8147 N   0  0  0  0  0  0  0  0  0  0  0  0
    5.3499   -0.0257   -0.9499 N   0  0  0  0  0  0  0  0  0  0  0  0
   -1.5005   -0.1766    0.1674 N   0  0  0  0  0  0  0  0  0  0  0  0
   -1.2256    2.1378    0.4699 O   0  0  0  0  0  0  0  0  0  0  0  0
   -2.0394    0.8984    1.8360 H   0  0  0  0  0  0  0  0  0  0  0  0
    1.2939    1.4515    0.4563 H   0  0  0  0  0  0  0  0  0  0  0  0
    1.0580   -0.3393    0.3343 H   0  0  0  0  0  0  0  0  0  0  0  0
    2.3355    1.0288    2.7401 H   0  0  0  0  0  0  0  0  0  0  0  0
    2.1208   -0.7443    2.4453 H   0  0  0  0  0  0  0  0  0  0  0  0
    4.4184    0.0316    2.1026 H   0  0  0  0  0  0  0  0  0  0  0  0
    4.9354    1.8242    0.8509 H   0  0  0  0  0  0  0  0  0  0  0  0
    3.2264    2.0955    0.4882 H   0  0  0  0  0  0  0  0  0  0  0  0
    4.8023    1.9064   -1.4236 H   0  0  0  0  0  0  0  0  0  0  0  0
    3.4357    0.7308   -1.5519 H   0  0  0  0  0  0  0  0  0  0  0  0
    4.3455   -1.7389   -1.4846 H   0  0  0  0  0  0  0  0  0  0  0  0
    5.6220   -1.9470   -0.2816 H   0  0  0  0  0  0  0  0  0  0  0  0
    2.7624   -1.4164    0.0865 H   0  0  0  0  0  0  0  0  0  0  0  0
    3.9485   -2.0468    1.2375 H   0  0  0  0  0  0  0  0  0  0  0  0
   -2.4285    0.8128   -1.3781 H   0  0  0  0  0  0  0  0  0  0  0  0
   -2.3032   -2.0322   -1.1192 H   0  0  0  0  0  0  0  0  0  0  0  0
   -3.0355   -1.0737   -2.4506 H   0  0  0  0  0  0  0  0  0  0  0  0
   -4.4557   -2.0137    0.1131 H   0  0  0  0  0  0  0  0  0  0  0  0
   -4.6066   -2.6317   -1.5584 H   0  0  0  0  0  0  0  0  0  0  0  0
   -6.4231   -1.0850   -1.0749 H   0  0  0  0  0  0  0  0  0  0  0  0
   -5.3803   -0.5383   -2.4163 H   0  0  0  0  0  0  0  0  0  0  0  0
   -5.9547    0.7394    0.1858 H   0  0  0  0  0  0  0  0  0  0  0  0
   -5.1086    1.4224   -1.2132 H   0  0  0  0  0  0  0  0  0  0  0  0
   -3.6255    1.5951    0.5138 H   0  0  0  0  0  0  0  0  0  0  0  0
   -3.9479   -0.1261    1.1256 H   0  0  0  0  0  0  0  0  0  0  0  0
   -0.1041   -0.0389    2.5805 H   0  0  0  0  0  0  0  0  0  0  0  0
    5.7622   -0.1518   -1.9145 H   0  0  0  0  0  0  0  0  0  0  0  0
   -0.7395   -0.2966   -0.5672 H   0  0  0  0  0  0  0  0  0  0  0  0
   -0.8768    2.0536   -0.4493 H   0  0  0  0  0  0  0  0  0  0  0  0
  3  2  1  0
  4  3  1  0
  5  4  1  0
  6  5  1  0
  8  7  1  0
  8  4  1  0
 10  9  1  0
 11 10  1  0
 12 11  1  0
 13 12  1  0
 14 13  1  0
 14  9  1  0
 15  2  1  0
 15  1  1  0
 16  7  1  0
 16  6  1  0
  9 17  1  0
 17  1  1  0
 18  1  1  0
  1 19  1  0
  2 20  1  0
  2 21  1  0
  3 22  1  0
  3 23  1  0
  4 24  1  0
  5 25  1  0
  5 26  1  0
  6 27  1  0
  6 28  1  0
  7 29  1  0
  7 30  1  0
  8 31  1  0
  8 32  1  0
  9 33  1  0
 10 34  1  0
 10 35  1  0
 11 36  1  0
 11 37  1  0
 12 38  1  0
 12 39  1  0
 13 40  1  0
 13 41  1  0
 14 42  1  0
 14 43  1  0
 15 44  1  0
 16 45  1  0
 17 46  1  0
 18 47  1  0
M  END
>  <conformer_id>  (1) 
5

>  <energy_abs>  (1) 
-88.50838542518794

>  <cluster_no>  (1) 
1

>  <cluster_centroid>  (1) 
5

>  <rms_to_centroid>  (1) 
0.0

>  <energy_delta>  (1) 
4.2330851922815498

$$$$

     RDKit          3D

 47 48  0  0  0  0  0  0  0  0999 V2000
   -1.0541   -0.9240    0.4808 C   0  0  0  0  0  0  0  0  0  0  0  0
    0.8229    0.4772    1.1150 C   0  0  0  0  0  0  0  0  0  0  0  0
    2.2464    0.4501    1.5787 C   0  0  0  0  0  0  0  0  0  0  0  0
    3.2586   -0.0147    0.5963 C   0  0  0  0  0  0  0  0  0  0  0  0
    3.3455    0.7966   -0.6449 C   0  0  0  0  0  0  0  0  0  0  0  0
    4.6618    0.5248   -1.3295 C   0  0  0  0  0  0  0  0  0  0  0  0
    5.7645   -0.3412    0.5086 C   0  0  0  0  0  0  0  0  0  0  0  0
    4.5531   -0.1762    1.3511 C   0  0  0  0  0  0  0  0  0  0  0  0
   -2.8881    0.0200   -0.7610 C   0  0  0  0  0  0  0  0  0  0  0  0
   -3.5865   -1.2112   -1.1766 C   0  0  0  0  0  0  0  0  0  0  0  0
   -5.0728   -0.9744   -1.2580 C   0  0  0  0  0  0  0  0  0  0  0  0
   -5.4866    0.4592   -1.1185 C   0  0  0  0  0  0  0  0  0  0  0  0
   -4.9008    1.1218    0.0887 C   0  0  0  0  0  0  0  0  0  0  0  0
   -3.5764    0.5306    0.5163 C   0  0  0  0  0  0  0  0  0  0  0  0
    0.3628   -0.8169    0.7219 N   0  0  0  0  0  0  0  0  0  0  0  0
    5.7896    0.7939   -0.4289 N   0  0  0  0  0  0  0  0  0  0  0  0
   -1.4647   -0.0653   -0.5553 N   0  0  0  0  0  0  0  0  0  0  0  0
   -1.2846   -2.2790    0.2371 O   0  0  0  0  0  0  0  0  0  0  0  0
   -1.5893   -0.6865    1.4325 H   0  0  0  0  0  0  0  0  0  0  0  0
    0.6813    1.2527    0.3107 H   0  0  0  0  0  0  0  0  0  0  0  0
    0.1988    0.8281    1.9591 H   0  0  0  0  0  0  0  0  0  0  0  0
    2.4677    1.5006    1.9377 H   0  0  0  0  0  0  0  0  0  0  0  0
    2.2658   -0.1480    2.5199 H   0  0  0  0  0  0  0  0  0  0  0  0
    2.9602   -1.0547    0.2772 H   0  0  0  0  0  0  0  0  0  0  0  0
    3.2938    1.8940   -0.4981 H   0  0  0  0  0  0  0  0  0  0  0  0
    2.5544    0.4718   -1.3565 H   0  0  0  0  0  0  0  0  0  0  0  0
    4.7841   -0.5515   -1.6189 H   0  0  0  0  0  0  0  0  0  0  0  0
    4.7741    1.1635   -2.2505 H   0  0  0  0  0  0  0  0  0  0  0  0
    5.8235   -1.2737   -0.0766 H   0  0  0  0  0  0  0  0  0  0  0  0
    6.6499   -0.1916    1.1939 H   0  0  0  0  0  0  0  0  0  0  0  0
    4.7333    0.6517    2.0724 H   0  0  0  0  0  0  0  0  0  0  0  0
    4.4283   -1.1018    1.9920 H   0  0  0  0  0  0  0  0  0  0  0  0
   -3.0541    0.8143   -1.5115 H   0  0  0  0  0  0  0  0  0  0  0  0
   -3.4607   -2.0403   -0.4355 H   0  0  0  0  0  0  0  0  0  0  0  0
   -3.2860   -1.5671   -2.2076 H   0  0  0  0  0  0  0  0  0  0  0  0
   -5.6505   -1.5405   -0.4704 H   0  0  0  0  0  0  0  0  0  0  0  0
   -5.5224   -1.3460   -2.2212 H   0  0  0  0  0  0  0  0  0  0  0  0
   -6.6065    0.4566   -0.9686 H   0  0  0  0  0  0  0  0  0  0  0  0
   -5.3472    1.0639   -2.0511 H   0  0  0  0  0  0  0  0  0  0  0  0
   -5.6277    1.1395    0.9264 H   0  0  0  0  0  0  0  0  0  0  0  0
   -4.7113    2.1990   -0.1496 H   0  0  0  0  0  0  0  0  0  0  0  0
   -3.7903   -0.3287    1.1870 H   0  0  0  0  0  0  0  0  0  0  0  0
   -2.9142    1.2849    1.0187 H   0  0  0  0  0  0  0  0  0  0  0  0
    0.9098   -1.1097   -0.1441 H   0  0  0  0  0  0  0  0  0  0  0  0
    5.4878    1.6287    0.1575 H   0  0  0  0  0  0  0  0  0  0  0  0
   -1.0872    0.8889   -0.4042 H   0  0  0  0  0  0  0  0  0  0  0  0
   -0.8561   -2.6456   -0.5426 H   0  0  0  0  0  0  0  0  0  0  0  0
  3  2  1  0
  4  3  1  0
  5  4  1  0
  6  5  1  0
  8  7  1  0
  8  4  1  0
 10  9  1  0
 11 10  1  0
 12 11  1  0
 13 12  1  0
 14 13  1  0
 14  9  1  0
 15  2  1  0
 15  1  1  0
 16  7  1  0
 16  6  1  0
  9 17  1  0
 17  1  1  0
 18  1  1  0
  1 19  1  0
  2 20  1  0
  2 21  1  0
  3 22  1  0
  3 23  1  0
  4 24  1  0
  5 25  1  0
  5 26  1  0
  6 27  1  0
  6 28  1  0
  7 29  1  0
  7 30  1  0
  8 31  1  0
  8 32  1  0
  9 33  1  0
 10 34  1  0
 10 35  1  0
 11 36  1  0
 11 37  1  0
 12 38  1  0
 12 39  1  0
 13 40  1  0
 13 41  1  0
 14 42  1  0
 14 43  1  0
 15 44  1  0
 16 45  1  0
 17 46  1  0
 18 47  1  0
M  END
>  <conformer_id>  (2) 
1

>  <energy_abs>  (2) 
-90.32526731740495

>  <cluster_no>  (2) 
1

>  <cluster_centroid>  (2) 
5

>  <rms_to_centroid>  (2) 
1.8692362366435569

>  <energy_delta>  (2) 
2.416203300064538

$$$$

     RDKit          3D

 47 48  0  0  0  0  0  0  0  0999 V2000
   -0.9194    0.2108    0.7930 C   0  0  0  0  0  0  0  0  0  0  0  0
    1.0458    0.6900   -0.5521 C   0  0  0  0  0  0  0  0  0  0  0  0
    2.0751    0.9515    0.4899 C   0  0  0  0  0  0  0  0  0  0  0  0
    3.4913    0.6078    0.0326 C   0  0  0  0  0  0  0  0  0  0  0  0
    4.4438    0.9224    1.1744 C   0  0  0  0  0  0  0  0  0  0  0  0
    5.8206    0.4275    0.8138 C   0  0  0  0  0  0  0  0  0  0  0  0
    5.0065   -1.1741   -0.7392 C   0  0  0  0  0  0  0  0  0  0  0  0
    3.6085   -0.8677   -0.2200 C   0  0  0  0  0  0  0  0  0  0  0  0
   -3.1578    0.3635   -0.1442 C   0  0  0  0  0  0  0  0  0  0  0  0
   -3.2032   -1.0700   -0.5007 C   0  0  0  0  0  0  0  0  0  0  0  0
   -4.5152   -1.7159   -0.7029 C   0  0  0  0  0  0  0  0  0  0  0  0
   -5.6171   -0.8585   -1.2166 C   0  0  0  0  0  0  0  0  0  0  0  0
   -5.5796    0.5618   -0.7274 C   0  0  0  0  0  0  0  0  0  0  0  0
   -4.5372    0.7662    0.3485 C   0  0  0  0  0  0  0  0  0  0  0  0
   -0.2910    0.9997   -0.2020 N   0  0  0  0  0  0  0  0  0  0  0  0
    5.8828   -0.0604   -0.5452 N   0  0  0  0  0  0  0  0  0  0  0  0
   -2.2874    0.5537    0.9968 N   0  0  0  0  0  0  0  0  0  0  0  0
   -0.2825    0.4528    2.0395 O   0  0  0  0  0  0  0  0  0  0  0  0
   -0.7692   -0.8865    0.6279 H   0  0  0  0  0  0  0  0  0  0  0  0
    1.3105    1.3376   -1.4352 H   0  0  0  0  0  0  0  0  0  0  0  0
    1.1082   -0.3454   -0.9591 H   0  0  0  0  0  0  0  0  0  0  0  0
    2.1006    2.0345    0.7355 H   0  0  0  0  0  0  0  0  0  0  0  0
    1.9197    0.3094    1.4006 H   0  0  0  0  0  0  0  0  0  0  0  0
    3.8119    1.2065   -0.8426 H   0  0  0  0  0  0  0  0  0  0  0  0
    4.1091    0.4589    2.1132 H   0  0  0  0  0  0  0  0  0  0  0  0
    4.4756    2.0381    1.3180 H   0  0  0  0  0  0  0  0  0  0  0  0
    6.5738    1.2315    0.9255 H   0  0  0  0  0  0  0  0  0  0  0  0
    6.0926   -0.4461    1.4651 H   0  0  0  0  0  0  0  0  0  0  0  0
    4.9373   -1.3827   -1.8362 H   0  0  0  0  0  0  0  0  0  0  0  0
    5.4301   -2.0800   -0.2529 H   0  0  0  0  0  0  0  0  0  0  0  0
    2.8814   -1.2489   -0.9335 H   0  0  0  0  0  0  0  0  0  0  0  0
    3.5480   -1.3806    0.7692 H   0  0  0  0  0  0  0  0  0  0  0  0
   -2.8199    1.0231   -0.9748 H   0  0  0  0  0  0  0  0  0  0  0  0
   -2.6027   -1.6487    0.2486 H   0  0  0  0  0  0  0  0  0  0  0  0
   -2.5716   -1.1753   -1.4440 H   0  0  0  0  0  0  0  0  0  0  0  0
   -4.8237   -2.1747    0.2784 H   0  0  0  0  0  0  0  0  0  0  0  0
   -4.3807   -2.5821   -1.3855 H   0  0  0  0  0  0  0  0  0  0  0  0
   -5.6313   -0.8310   -2.3231 H   0  0  0  0  0  0  0  0  0  0  0  0
   -6.5876   -1.2970   -0.9122 H   0  0  0  0  0  0  0  0  0  0  0  0
   -5.3467    1.2819   -1.5363 H   0  0  0  0  0  0  0  0  0  0  0  0
   -6.5453    0.8816   -0.2929 H   0  0  0  0  0  0  0  0  0  0  0  0
   -4.7487    0.1661    1.2444 H   0  0  0  0  0  0  0  0  0  0  0  0
   -4.4825    1.8505    0.5732 H   0  0  0  0  0  0  0  0  0  0  0  0
   -0.8464    1.4435   -0.9194 H   0  0  0  0  0  0  0  0  0  0  0  0
    5.7686    0.7026   -1.2402 H   0  0  0  0  0  0  0  0  0  0  0  0
   -2.6933    0.1512    1.8730 H   0  0  0  0  0  0  0  0  0  0  0  0
   -0.2019   -0.3755    2.5770 H   0  0  0  0  0  0  0  0  0  0  0  0
  3  2  1  0
  4  3  1  0
  5  4  1  0
  6  5  1  0
  8  7  1  0
  8  4  1  0
 10  9  1  0
 11 10  1  0
 12 11  1  0
 13 12  1  0
 14 13  1  0
 14  9  1  0
 15  2  1  0
 15  1  1  0
 16  7  1  0
 16  6  1  0
  9 17  1  0
 17  1  1  0
 18  1  1  0
  1 19  1  0
  2 20  1  0
  2 21  1  0
  3 22  1  0
  3 23  1  0
  4 24  1  0
  5 25  1  0
  5 26  1  0
  6 27  1  0
  6 28  1  0
  7 29  1  0
  7 30  1  0
  8 31  1  0
  8 32  1  0
  9 33  1  0
 10 34  1  0
 10 35  1  0
 11 36  1  0
 11 37  1  0
 12 38  1  0
 12 39  1  0
 13 40  1  0
 13 41  1  0
 14 42  1  0
 14 43  1  0
 15 44  1  0
 16 45  1  0
 17 46  1  0
 18 47  1  0
M  END
>  <conformer_id>  (3) 
3

>  <energy_abs>  (3) 
-79.21903016799601

>  <cluster_no>  (3) 
1

>  <cluster_centroid>  (3) 
5

>  <rms_to_centroid>  (3) 
1.858526718241494

>  <energy_delta>  (3) 
13.522440449473478

$$$$

     RDKit          3D

 47 48  0  0  0  0  0  0  0  0999 V2000
   -0.8784    0.8391    0.0687 C   0  0  0  0  0  0  0  0  0  0  0  0
    1.3933    1.2833    0.7746 C   0  0  0  0  0  0  0  0  0  0  0  0
    1.8182   -0.1443    0.7899 C   0  0  0  0  0  0  0  0  0  0  0  0
    3.2733   -0.3573    0.4878 C   0  0  0  0  0  0  0  0  0  0  0  0
    4.1939    0.3200    1.4494 C   0  0  0  0  0  0  0  0  0  0  0  0
    5.5852    0.2877    0.8311 C   0  0  0  0  0  0  0  0  0  0  0  0
    4.9359   -0.7676   -1.2365 C   0  0  0  0  0  0  0  0  0  0  0  0
    3.6820    0.0140   -0.9071 C   0  0  0  0  0  0  0  0  0  0  0  0
   -3.2232    0.4481   -0.3907 C   0  0  0  0  0  0  0  0  0  0  0  0
   -3.1051   -1.0140   -0.6955 C   0  0  0  0  0  0  0  0  0  0  0  0
   -4.2822   -1.8251   -0.2123 C   0  0  0  0  0  0  0  0  0  0  0  0
   -5.6053   -1.2964   -0.6627 C   0  0  0  0  0  0  0  0  0  0  0  0
   -5.6419    0.1921   -0.7536 C   0  0  0  0  0  0  0  0  0  0  0  0
   -4.5951    0.7619    0.1795 C   0  0  0  0  0  0  0  0  0  0  0  0
   -0.0105    1.3758    1.0907 N   0  0  0  0  0  0  0  0  0  0  0  0
    5.7318   -0.8657   -0.0480 N   0  0  0  0  0  0  0  0  0  0  0  0
   -2.2326    0.9450    0.5370 N   0  0  0  0  0  0  0  0  0  0  0  0
   -0.8039    1.5912   -1.1104 O   0  0  0  0  0  0  0  0  0  0  0  0
   -0.6696   -0.1983   -0.1841 H   0  0  0  0  0  0  0  0  0  0  0  0
    1.5201    1.6946   -0.2494 H   0  0  0  0  0  0  0  0  0  0  0  0
    1.9375    1.9147    1.4961 H   0  0  0  0  0  0  0  0  0  0  0  0
    1.2631   -0.6882   -0.0253 H   0  0  0  0  0  0  0  0  0  0  0  0
    1.5557   -0.6384    1.7427 H   0  0  0  0  0  0  0  0  0  0  0  0
    3.4515   -1.4676    0.5921 H   0  0  0  0  0  0  0  0  0  0  0  0
    3.9109    1.3971    1.5057 H   0  0  0  0  0  0  0  0  0  0  0  0
    4.1769   -0.1253    2.4634 H   0  0  0  0  0  0  0  0  0  0  0  0
    6.3033    0.1434    1.6703 H   0  0  0  0  0  0  0  0  0  0  0  0
    5.8252    1.2344    0.3084 H   0  0  0  0  0  0  0  0  0  0  0  0
    4.6093   -1.8006   -1.4974 H   0  0  0  0  0  0  0  0  0  0  0  0
    5.4660   -0.3769   -2.1113 H   0  0  0  0  0  0  0  0  0  0  0  0
    3.9920    1.0910   -0.9093 H   0  0  0  0  0  0  0  0  0  0  0  0
    2.8878   -0.1102   -1.6597 H   0  0  0  0  0  0  0  0  0  0  0  0
   -3.0847    1.0250   -1.3366 H   0  0  0  0  0  0  0  0  0  0  0  0
   -2.1947   -1.4901   -0.2659 H   0  0  0  0  0  0  0  0  0  0  0  0
   -3.0617   -1.1660   -1.8036 H   0  0  0  0  0  0  0  0  0  0  0  0
   -4.1144   -2.8610   -0.6314 H   0  0  0  0  0  0  0  0  0  0  0  0
   -4.1847   -1.9462    0.8860 H   0  0  0  0  0  0  0  0  0  0  0  0
   -6.3801   -1.6411    0.0737 H   0  0  0  0  0  0  0  0  0  0  0  0
   -5.8688   -1.7719   -1.6526 H   0  0  0  0  0  0  0  0  0  0  0  0
   -6.6649    0.5606   -0.4585 H   0  0  0  0  0  0  0  0  0  0  0  0
   -5.3723    0.5082   -1.7635 H   0  0  0  0  0  0  0  0  0  0  0  0
   -4.7191    1.8644    0.2578 H   0  0  0  0  0  0  0  0  0  0  0  0
   -4.7241    0.3006    1.1696 H   0  0  0  0  0  0  0  0  0  0  0  0
   -0.1783    0.8169    1.9532 H   0  0  0  0  0  0  0  0  0  0  0  0
    6.7566   -0.9386   -0.2480 H   0  0  0  0  0  0  0  0  0  0  0  0
   -2.3931    0.4750    1.4532 H   0  0  0  0  0  0  0  0  0  0  0  0
   -0.2809    2.4306   -0.9673 H   0  0  0  0  0  0  0  0  0  0  0  0
  3  2  1  0
  4  3  1  0
  5  4  1  0
  6  5  1  0
  8  7  1  0
  8  4  1  0
 10  9  1  0
 11 10  1  0
 12 11  1  0
 13 12  1  0
 14 13  1  0
 14  9  1  0
 15  2  1  0
 15  1  1  0
 16  7  1  0
 16  6  1  0
  9 17  1  0
 17  1  1  0
 18  1  1  0
  1 19  1  0
  2 20  1  0
  2 21  1  0
  3 22  1  0
  3 23  1  0
  4 24  1  0
  5 25  1  0
  5 26  1  0
  6 27  1  0
  6 28  1  0
  7 29  1  0
  7 30  1  0
  8 31  1  0
  8 32  1  0
  9 33  1  0
 10 34  1  0
 10 35  1  0
 11 36  1  0
 11 37  1  0
 12 38  1  0
 12 39  1  0
 13 40  1  0
 13 41  1  0
 14 42  1  0
 14 43  1  0
 15 44  1  0
 16 45  1  0
 17 46  1  0
 18 47  1  0
M  END
>  <conformer_id>  (4) 
4

>  <energy_abs>  (4) 
-92.74147061746949

>  <cluster_no>  (4) 
1

>  <cluster_centroid>  (4) 
5

>  <rms_to_centroid>  (4) 
1.8214653917770691

>  <energy_delta>  (4) 
0

$$$$

     RDKit          3D

 47 48  0  0  0  0  0  0  0  0999 V2000
   -0.7780   -1.6464   -0.9432 C   0  0  0  0  0  0  0  0  0  0  0  0
    1.0685   -1.4304    0.4375 C   0  0  0  0  0  0  0  0  0  0  0  0
    1.8436   -0.4475    1.2726 C   0  0  0  0  0  0  0  0  0  0  0  0
    2.3355    0.6629    0.3969 C   0  0  0  0  0  0  0  0  0  0  0  0
    3.2331    0.2025   -0.7046 C   0  0  0  0  0  0  0  0  0  0  0  0
    4.4279   -0.4819   -0.1195 C   0  0  0  0  0  0  0  0  0  0  0  0
    4.5597    1.6873    0.9269 C   0  0  0  0  0  0  0  0  0  0  0  0
    3.0909    1.6455    1.2684 C   0  0  0  0  0  0  0  0  0  0  0  0
   -2.9011   -0.4498   -1.2633 C   0  0  0  0  0  0  0  0  0  0  0  0
   -3.7731   -1.1417   -0.2434 C   0  0  0  0  0  0  0  0  0  0  0  0
   -4.9710   -0.2564    0.0421 C   0  0  0  0  0  0  0  0  0  0  0  0
   -4.6225    1.1506    0.3852 C   0  0  0  0  0  0  0  0  0  0  0  0
   -3.1178    1.2621    0.5451 C   0  0  0  0  0  0  0  0  0  0  0  0
   -2.5336    0.9298   -0.8160 C   0  0  0  0  0  0  0  0  0  0  0  0
   -0.0556   -0.6729   -0.1491 N   0  0  0  0  0  0  0  0  0  0  0  0
    5.1500    0.3990    0.7475 N   0  0  0  0  0  0  0  0  0  0  0  0
   -1.8090   -1.1673   -1.7301 N   0  0  0  0  0  0  0  0  0  0  0  0
    0.2098   -2.1805   -1.8205 O   0  0  0  0  0  0  0  0  0  0  0  0
   -1.0211   -2.5169   -0.2849 H   0  0  0  0  0  0  0  0  0  0  0  0
    0.6326   -2.1765    1.1097 H   0  0  0  0  0  0  0  0  0  0  0  0
    1.6458   -1.8287   -0.3978 H   0  0  0  0  0  0  0  0  0  0  0  0
    1.1235    0.0110    2.0040 H   0  0  0  0  0  0  0  0  0  0  0  0
    2.6403   -0.9394    1.8553 H   0  0  0  0  0  0  0  0  0  0  0  0
    1.4337    1.1309   -0.0739 H   0  0  0  0  0  0  0  0  0  0  0  0
    3.6088    1.1242   -1.2256 H   0  0  0  0  0  0  0  0  0  0  0  0
    2.7056   -0.4087   -1.4500 H   0  0  0  0  0  0  0  0  0  0  0  0
    5.1071   -0.7779   -0.9714 H   0  0  0  0  0  0  0  0  0  0  0  0
    4.1314   -1.4315    0.3732 H   0  0  0  0  0  0  0  0  0  0  0  0
    4.7463    2.3747    0.0723 H   0  0  0  0  0  0  0  0  0  0  0  0
    5.0725    2.1623    1.8082 H   0  0  0  0  0  0  0  0  0  0  0  0
    2.9331    1.4374    2.3509 H   0  0  0  0  0  0  0  0  0  0  0  0
    2.6756    2.6540    1.0490 H   0  0  0  0  0  0  0  0  0  0  0  0
   -3.6301   -0.2938   -2.1478 H   0  0  0  0  0  0  0  0  0  0  0  0
   -3.2820   -1.3561    0.7051 H   0  0  0  0  0  0  0  0  0  0  0  0
   -4.1870   -2.0776   -0.6727 H   0  0  0  0  0  0  0  0  0  0  0  0
   -5.6698   -0.2299   -0.8229 H   0  0  0  0  0  0  0  0  0  0  0  0
   -5.5836   -0.6768    0.8879 H   0  0  0  0  0  0  0  0  0  0  0  0
   -5.0750    1.4609    1.3362 H   0  0  0  0  0  0  0  0  0  0  0  0
   -4.9088    1.8899   -0.3902 H   0  0  0  0  0  0  0  0  0  0  0  0
   -2.8013    2.2769    0.8314 H   0  0  0  0  0  0  0  0  0  0  0  0
   -2.7343    0.5264    1.2616 H   0  0  0  0  0  0  0  0  0  0  0  0
   -2.9575    1.6573   -1.5833 H   0  0  0  0  0  0  0  0  0  0  0  0
   -1.4495    1.1585   -0.8391 H   0  0  0  0  0  0  0  0  0  0  0  0
   -0.6248   -0.3677    0.6874 H   0  0  0  0  0  0  0  0  0  0  0  0
    5.5308   -0.0364    1.6011 H   0  0  0  0  0  0  0  0  0  0  0  0
   -1.7190   -1.2801   -2.7636 H   0  0  0  0  0  0  0  0  0  0  0  0
    0.2999   -1.5075   -2.5426 H   0  0  0  0  0  0  0  0  0  0  0  0
  3  2  1  0
  4  3  1  0
  5  4  1  0
  6  5  1  0
  8  7  1  0
  8  4  1  0
 10  9  1  0
 11 10  1  0
 12 11  1  0
 13 12  1  0
 14 13  1  0
 14  9  1  0
 15  2  1  0
 15  1  1  0
 16  7  1  0
 16  6  1  0
  9 17  1  0
 17  1  1  0
 18  1  1  0
  1 19  1  0
  2 20  1  0
  2 21  1  0
  3 22  1  0
  3 23  1  0
  4 24  1  0
  5 25  1  0
  5 26  1  0
  6 27  1  0
  6 28  1  0
  7 29  1  0
  7 30  1  0
  8 31  1  0
  8 32  1  0
  9 33  1  0
 10 34  1  0
 10 35  1  0
 11 36  1  0
 11 37  1  0
 12 38  1  0
 12 39  1  0
 13 40  1  0
 13 41  1  0
 14 42  1  0
 14 43  1  0
 15 44  1  0
 16 45  1  0
 17 46  1  0
 18 47  1  0
M  END
>  <conformer_id>  (5) 
2

>  <energy_abs>  (5) 
-70.59844629257701

>  <cluster_no>  (5) 
2

>  <cluster_centroid>  (5) 
2

>  <rms_to_centroid>  (5) 
0.0

>  <energy_delta>  (5) 
22.14302432489248

$$$$
